.subckt {{netlist_name}} gnda vdda vinn vinp vout Ib Vbias_cas_p
* PMOS LV cascode LOAD — wide-swing Sooch wiring, external bias.
XM5 net_out5 vout vdda vdda sky130_fd_pr__pfet_01v8 l={{ M5_L }} w={{ M5_W }} m={{ M5_M }}
XM6 net_int_m net1 vdda vdda sky130_fd_pr__pfet_01v8 l={{ M5_L }} w={{ M5_W }} m={{ M5_M }}
XM7 vout Vbias_cas_p net_out5 vdda sky130_fd_pr__pfet_01v8 l={{ M7_L }} w={{ M7_W }} m={{ M7_M }}
XM8 net1 Vbias_cas_p net_int_m vdda sky130_fd_pr__pfet_01v8 l={{ M7_L }} w={{ M7_W }} m={{ M7_M }}
* NMOS diff pair (vinp on mirror side for non-inverting)
XM1 vout vinn net2 gnda sky130_fd_pr__nfet_01v8 l={{ M1_L }} w={{ M1_W }} m={{ M1_M }}
XM2 net1 vinp net2 gnda sky130_fd_pr__nfet_01v8 l={{ M1_L }} w={{ M1_W }} m={{ M1_M }}
* Tail / bias
XM3 net2 net3 gnda gnda sky130_fd_pr__nfet_01v8 l={{ M3_L }} w={{ M3_W }} m={{ M3_M }}
XM4 net3 net3 gnda gnda sky130_fd_pr__nfet_01v8 l={{ M3_L }} w={{ M3_W }} m={{ M4_M }}
I0 vdda net3 Ib
.ends {{netlist_name}}